dynawo/sources/Modeler/DataInterface/PowSyblIIDM/test/resources/PhaseTapChanger.xiidm
<?xml version="1.0" encoding="UTF-8"?>
<iidm:network xmlns:iidm="http://www.powsybl.org/schema/iidm/1_5" id="test" caseDate="2022-01-01T00:00:00.000+01:00" forecastDistance="0" sourceFormat="test">
    <iidm:substation id="S1" name="S1_NAME" country="FR" tso="TSO">
        <iidm:voltageLevel id="VL1" name="VL1_NAME" nominalV="380.0" lowVoltageLimit="340.0" highVoltageLimit="420.0" topologyKind="BUS_BREAKER">
            <iidm:busBreakerTopology>
                <iidm:bus id="VL1_BUS1"/>
            </iidm:busBreakerTopology>
            <iidm:load id="LOAD1" name="LOAD1_NAME" loadType="UNDEFINED" p0="50.0" q0="40.0" bus="VL1_BUS1" connectableBus="VL1_BUS1"/>
        </iidm:voltageLevel>
        <iidm:voltageLevel id="VL2" name="VL2_NAME" nominalV="225.0" lowVoltageLimit="200.0" highVoltageLimit="260.0" topologyKind="BUS_BREAKER">
            <iidm:busBreakerTopology>
                <iidm:bus id="VL2_BUS1"/>
            </iidm:busBreakerTopology>
            <iidm:load id="LOAD2" name="LOAD2_NAME" loadType="UNDEFINED" p0="60.0" q0="70.0" bus="VL2_BUS1" connectableBus="VL2_BUS1"/>
        </iidm:voltageLevel>
        <iidm:twoWindingsTransformer id="2WT_VL1_VL2" name="2WT_VL1_VL2_NAME" r="3.0" x="33.0" g="1.0" b="0.2" ratedU1="380.0" ratedU2="225.0" bus1="VL1_BUS1" connectableBus1="VL1_BUS1" voltageLevelId1="VL1" bus2="VL2_BUS1" connectableBus2="VL2_BUS1" voltageLevelId2="VL2">
            <iidm:phaseTapChanger lowTapPosition="0" tapPosition="1" regulationMode="CURRENT_LIMITER" regulationValue="770.0">
                <iidm:terminalRef id="2WT_VL1_VL2" side="ONE"/>
                <iidm:step alpha="3.0" r="12.0" x="14.0" g="11.0" b="10.0" rho="13.0"/>
                <iidm:step alpha="2.0" r="17.0" x="19.0" g="16.0" b="15.0" rho="18.0"/>
                <iidm:step alpha="1.0" r="22.0" x="24.0" g="21.0" b="20.0" rho="23.0"/>
            </iidm:phaseTapChanger>
        </iidm:twoWindingsTransformer>
    </iidm:substation>
</iidm:network>
